[TITLE]


[JUNCTIONS]
;ID              	Elev        	Demand      	Pattern         
 1               	100         	0.6         	                	;
 2               	95          	0.25        	                	;
 3               	92          	0.5         	                	;
 4               	89          	1.2         	                	;

[RESERVOIRS]
;ID              	Head        	Pattern         
 0               	140         	                	;

[TANKS]
;ID              	Elevation   	InitLevel   	MinLevel    	MaxLevel    	Diameter    	MinVol      	VolCurve

[PIPES]
;ID              	Node1           	Node2           	Length      	Diameter    	Roughness   	MinorLoss   	Status
 1               	0               	1               	250         	51.4        	140         	0           	Open  	;
 4               	1               	4               	500         	32.6        	140         	0           	Open  	;
 2               	1               	2               	500         	40.8        	140         	0           	Open  	;
 5               	2               	4               	707.1       	26          	140         	0           	Open  	;
 3               	2               	3               	353.55      	32.6        	140         	0           	Open  	;

[PUMPS]
;ID              	Node1           	Node2           	Parameters

[VALVES]
;ID              	Node1           	Node2           	Diameter    	Type	Setting     	MinorLoss   

[TAGS]

[DEMANDS]
;Junction        	Demand      	Pattern         	Category

[STATUS]
;ID              	Status/Setting

[PATTERNS]
;ID              	Multipliers
;
 Cl              	1           	1           	1           	1           	1           	1           
 Cl              	1           	1           	1           	1           	1           	1           
 Cl              	1           	1           	1           	1           	1           	1           
 Cl              	1           	1           	1           	1           	1           	1           

[CURVES]
;ID              	X-Value     	Y-Value

[CONTROLS]



[RULES]



[ENERGY]
 Global Efficiency  	75
 Global Price       	0
 Demand Charge      	0

[EMITTERS]
;Junction        	Coefficient

[QUALITY]
;Node            	InitQual
 0               	100

[SOURCES]
;Node            	Type        	Quality     	Pattern
 0               	SETPOINT    	100         	Cl

[REACTIONS]
;Type     	Pipe/Tank       	Coefficient


[REACTIONS]
 Order Bulk            	1
 Order Tank            	1
 Order Wall            	1
 Global Bulk           	0
 Global Wall           	0
 Limiting Potential    	0
 Roughness Correlation 	0

[MIXING]
;Tank            	Model

[TIMES]
 Duration           	24:00 
 Hydraulic Timestep 	0:10 
 Quality Timestep   	0:01 
 Pattern Timestep   	1:00 
 Pattern Start      	0:00 
 Report Timestep    	0:10 
 Report Start       	0:00 
 Start ClockTime    	12 am
 Statistic          	NONE

[REPORT]
 Status             	No
 Summary            	No
 Page               	0

[OPTIONS]
 Units              	LPS
 Headloss           	H-W
 Specific Gravity   	1
 Viscosity          	1
 Trials             	40
 Accuracy           	0.001
 CHECKFREQ          	2
 MAXCHECK           	10
 DAMPLIMIT          	0
 Unbalanced         	Continue 10
 Pattern            	Cl
 Demand Multiplier  	1.0
 Emitter Exponent   	0.5
 Quality            	Age mg/L
 Diffusivity        	1
 Tolerance          	0.01

[COORDINATES]
;Node            	X-Coord         	Y-Coord
 1               	500.00          	1250.00         
 2               	1000.00         	1250.00         
 3               	1250.00         	1000.00         
 4               	500.00          	750.00          
 0               	500.00          	1500.00         

[VERTICES]
;Link            	X-Coord         	Y-Coord

[LABELS]
;X-Coord           Y-Coord          Label & Anchor Node

[BACKDROP]
 DIMENSIONS     	0.00            	0.00            	2000.00         	2000.00         
 UNITS          	Meters
 FILE           	
 OFFSET         	0.00            	0.00            

[END]
